/*--------------------------------*- C++ -*----------------------------------*\
| =========                 |                                                 |
| \\      /  F ield         | OpenFOAM: The Open Source CFD Toolbox           |
|  \\    /   O peration     | Version:  5                                     |
|   \\  /    A nd           | Web:      www.OpenFOAM.org                      |
|    \\/     M anipulation  |                                                 |
\*---------------------------------------------------------------------------*/
FoamFile
{
    version     2.0;
    format      ascii;
    class       dictionary;
    object      blockMeshDict;
}

// * * * * * * * * * * * * * * * * * * * * * * * * * * * * * * * * * * * * * //

convertToMeters 1;

vertices
(
    (-5 -5 -5)
    (15 -5 -5)
    (15  5 -5)
    (-5  5 -5)
    (-5 -5 2)
    (15 -5 2)
    (15  5 2)
    (-5  5 2)
);

blocks
(
    hex (0 1 2 3 4 5 6 7) (40 20 20) simpleGrading (1 1 1)
);

edges
(
);

boundary
(
    sides
    {
        type symmetry;
        faces
        (
            (3 7 6 2)
            (1 5 4 0)
        );
    }
    inlet
    {
        type patch;
        faces
        (
            (0 4 7 3)
        );
    }
    outlet
    {
        type patch;
        faces
        (
            (2 6 5 1)
        );
    }
    bottom
    {
        type wall;
        faces
        (
            (0 3 2 1)
        );
    }
    top
    {
        type patch;
        faces
        (
            (4 5 6 7)
        );
    }
);

// ************************************************************************* //
