/*--------------------------------*- C++ -*----------------------------------*\
| =========                 |                                                 |
| \\      /  F ield         | OpenFOAM: The Open Source CFD Toolbox           |
|  \\    /   O peration     | Version:  v2206                                 |
|   \\  /    A nd           | Website:  www.openfoam.com                      |
|    \\/     M anipulation  |                                                 |
\*---------------------------------------------------------------------------*/
FoamFile
{
    version     2.0;
    format      ascii;
    class       dictionary;
    object      controlDict;
}
// * * * * * * * * * * * * * * * * * * * * * * * * * * * * * * * * * * * * * //

//libs            (overset fvMotionSolvers);

application     interFoam;

startFrom       latestTime;

startTime       0.0;

stopAt          endTime;

endTime         100;

deltaT          0.1;

writeControl    adjustableRunTime;

writeInterval   0.5;

purgeWrite      0;

writeFormat     ascii;

writePrecision  12;

writeCompression off;

timeFormat      general;

timePrecision   6;

runTimeModifiable yes;

adjustTimeStep  no;//yes;

maxCo           2.0;

maxAlphaCo      2.0;

maxDeltaT       1;

functions
{
 forces
    {
        type            forces;
        libs            (forces);
        patches         (float);
        rhoInf          998.8;
        log             on;
        writeControl    timeStep;
        writeInterval   1;
        CofR            (0.0 0.0 0.54);
    }
    
    sixDoFRigidBodyState
    {
        type           sixDoFRigidBodyState;
        libs           (sixDoFRigidBodyState);
        angleFormat    degrees;
    }

}


// ************************************************************************* //
