/*--------------------------------*- C++ -*----------------------------------*\
| =========                 |                                                 |
| \\      /  F ield         | OpenFOAM: The Open Source CFD Toolbox           |
|  \\    /   O peration     | Version:  v2006                                 |
|   \\  /    A nd           | Website:  www.openfoam.com                      |
|    \\/     M anipulation  |                                                 |
\*---------------------------------------------------------------------------*/
FoamFile
{
    version     2.0;
    format      ascii;
    class       featureEdgeMesh;
    location    "constant/triSurface";
    object      cylinder.eMesh;
}
// * * * * * * * * * * * * * * * * * * * * * * * * * * * * * * * * * * * * * //


// points:

188
(
(0.5 0 2)
(0.489765 0.100649 2)
(0.459479 0.197178 2)
(0.410382 0.285634 2)
(0.344483 0.362396 2)
(0.264482 0.424322 2)
(0.173653 0.468876 2)
(0.0757139 0.494234 2)
(-0.0253246 0.499358 2)
(-0.125326 0.484039 2)
(-0.220197 0.448902 2)
(-0.306053 0.395388 2)
(-0.379379 0.325686 2)
(-0.437173 0.242651 2)
(-0.47707 0.149682 2)
(-0.497435 0.0505842 2)
(-0.497435 -0.0505842 2)
(-0.47707 -0.149682 2)
(-0.437173 -0.242651 2)
(-0.379379 -0.325686 2)
(-0.306053 -0.395388 2)
(-0.220197 -0.448902 2)
(-0.125326 -0.484039 2)
(-0.0253246 -0.499358 2)
(0.0757139 -0.494234 2)
(0.173653 -0.468876 2)
(0.264482 -0.424322 2)
(0.344483 -0.362396 2)
(0.410382 -0.285634 2)
(0.459479 -0.197178 2)
(0.489765 -0.100649 2)
(1 0 0.4)
(0.995031 0.0995679 0.4)
(0.980173 0.198146 0.4)
(0.955573 0.294755 0.4)
(0.921476 0.388435 0.4)
(0.878222 0.478254 0.4)
(0.826239 0.56332 0.4)
(0.766044 0.642788 0.4)
(0.698237 0.715867 0.4)
(0.62349 0.781832 0.4)
(0.542546 0.840026 0.4)
(0.456211 0.889872 0.4)
(0.365341 0.930874 0.4)
(0.27084 0.962624 0.4)
(0.173648 0.984808 0.4)
(0.0747301 0.997204 0.4)
(-0.0249307 0.999689 0.4)
(-0.124344 0.992239 0.4)
(-0.222521 0.974928 0.4)
(-0.318487 0.947927 0.4)
(-0.411287 0.911506 0.4)
(-0.5 0.866025 0.4)
(-0.583744 0.811938 0.4)
(-0.661686 0.749781 0.4)
(-0.733052 0.680173 0.4)
(-0.797132 0.603804 0.4)
(-0.853291 0.521435 0.4)
(-0.900969 0.433884 0.4)
(-0.939693 0.34202 0.4)
(-0.969077 0.246757 0.4)
(-0.988831 0.149042 0.4)
(-0.998757 0.0498459 0.4)
(-0.998757 -0.0498459 0.4)
(-0.988831 -0.149042 0.4)
(-0.969077 -0.246757 0.4)
(-0.939693 -0.34202 0.4)
(-0.900969 -0.433884 0.4)
(-0.853291 -0.521435 0.4)
(-0.797132 -0.603804 0.4)
(-0.733052 -0.680173 0.4)
(-0.661686 -0.749781 0.4)
(-0.583744 -0.811938 0.4)
(-0.5 -0.866025 0.4)
(-0.411287 -0.911506 0.4)
(-0.318487 -0.947927 0.4)
(-0.222521 -0.974928 0.4)
(-0.124344 -0.992239 0.4)
(-0.0249307 -0.999689 0.4)
(0.0747301 -0.997204 0.4)
(0.173648 -0.984808 0.4)
(0.27084 -0.962624 0.4)
(0.365341 -0.930874 0.4)
(0.456211 -0.889872 0.4)
(0.542546 -0.840026 0.4)
(0.62349 -0.781832 0.4)
(0.698237 -0.715867 0.4)
(0.766044 -0.642788 0.4)
(0.826239 -0.56332 0.4)
(0.878222 -0.478254 0.4)
(0.921476 -0.388435 0.4)
(0.955573 -0.294755 0.4)
(0.980173 -0.198146 0.4)
(0.995031 -0.0995679 0.4)
(1 0 0)
(0.995031 0.0995679 0)
(0.980173 0.198146 0)
(0.955573 0.294755 0)
(0.921476 0.388435 0)
(0.878222 0.478254 0)
(0.826239 0.56332 0)
(0.766044 0.642788 0)
(0.698237 0.715867 0)
(0.62349 0.781832 0)
(0.542546 0.840026 0)
(0.456211 0.889872 0)
(0.365341 0.930874 0)
(0.27084 0.962624 0)
(0.173648 0.984808 0)
(0.0747301 0.997204 0)
(-0.0249307 0.999689 0)
(-0.124344 0.992239 0)
(-0.222521 0.974928 0)
(-0.318487 0.947927 0)
(-0.411287 0.911506 0)
(-0.5 0.866025 0)
(-0.583744 0.811938 0)
(-0.661686 0.749781 0)
(-0.733052 0.680173 0)
(-0.797132 0.603804 0)
(-0.853291 0.521435 0)
(-0.900969 0.433884 0)
(-0.939693 0.34202 0)
(-0.969077 0.246757 0)
(-0.988831 0.149042 0)
(-0.998757 0.0498459 0)
(-0.998757 -0.0498459 0)
(-0.988831 -0.149042 0)
(-0.969077 -0.246757 0)
(-0.939693 -0.34202 0)
(-0.900969 -0.433884 0)
(-0.853291 -0.521435 0)
(-0.797132 -0.603804 0)
(-0.733052 -0.680173 0)
(-0.661686 -0.749781 0)
(-0.583744 -0.811938 0)
(-0.5 -0.866025 0)
(-0.411287 -0.911506 0)
(-0.318487 -0.947927 0)
(-0.222521 -0.974928 0)
(-0.124344 -0.992239 0)
(-0.0249307 -0.999689 0)
(0.0747301 -0.997204 0)
(0.173648 -0.984808 0)
(0.27084 -0.962624 0)
(0.365341 -0.930874 0)
(0.456211 -0.889872 0)
(0.542546 -0.840026 0)
(0.62349 -0.781832 0)
(0.698237 -0.715867 0)
(0.766044 -0.642788 0)
(0.826239 -0.56332 0)
(0.878222 -0.478254 0)
(0.921476 -0.388435 0)
(0.955573 -0.294755 0)
(0.980173 -0.198146 0)
(0.995031 -0.0995679 0)
(0.5 0 0.4)
(0.489765 0.100649 0.4)
(0.459479 0.197178 0.4)
(0.410382 0.285634 0.4)
(0.344483 0.362396 0.4)
(0.264482 0.424322 0.4)
(0.173653 0.468876 0.4)
(0.0757139 0.494234 0.4)
(-0.0253246 0.499358 0.4)
(-0.125326 0.484039 0.4)
(-0.220197 0.448902 0.4)
(-0.306053 0.395388 0.4)
(-0.379379 0.325686 0.4)
(-0.437173 0.242651 0.4)
(-0.47707 0.149682 0.4)
(-0.497435 0.0505842 0.4)
(-0.497435 -0.0505842 0.4)
(-0.47707 -0.149682 0.4)
(-0.437173 -0.242651 0.4)
(-0.379379 -0.325686 0.4)
(-0.306053 -0.395388 0.4)
(-0.220197 -0.448902 0.4)
(-0.125326 -0.484039 0.4)
(-0.0253246 -0.499358 0.4)
(0.0757139 -0.494234 0.4)
(0.173653 -0.468876 0.4)
(0.264482 -0.424322 0.4)
(0.344483 -0.362396 0.4)
(0.410382 -0.285634 0.4)
(0.459479 -0.197178 0.4)
(0.489765 -0.100649 0.4)
)


// edges:

188
(
(0 1)
(2 3)
(4 5)
(6 7)
(8 9)
(10 11)
(12 13)
(14 15)
(16 17)
(18 19)
(20 21)
(22 23)
(24 25)
(26 27)
(28 29)
(30 0)
(1 2)
(3 4)
(5 6)
(7 8)
(9 10)
(11 12)
(13 14)
(15 16)
(17 18)
(19 20)
(21 22)
(23 24)
(25 26)
(27 28)
(29 30)
(31 32)
(33 34)
(35 36)
(37 38)
(39 40)
(41 42)
(43 44)
(45 46)
(47 48)
(49 50)
(51 52)
(53 54)
(55 56)
(57 58)
(59 60)
(61 62)
(63 64)
(65 66)
(67 68)
(69 70)
(71 72)
(73 74)
(75 76)
(77 78)
(79 80)
(81 82)
(83 84)
(85 86)
(87 88)
(89 90)
(91 92)
(93 31)
(32 33)
(34 35)
(36 37)
(38 39)
(40 41)
(42 43)
(44 45)
(46 47)
(48 49)
(50 51)
(52 53)
(54 55)
(56 57)
(58 59)
(60 61)
(62 63)
(64 65)
(66 67)
(68 69)
(70 71)
(72 73)
(74 75)
(76 77)
(78 79)
(80 81)
(82 83)
(84 85)
(86 87)
(88 89)
(90 91)
(92 93)
(94 95)
(95 96)
(97 98)
(99 100)
(101 102)
(103 104)
(105 106)
(107 108)
(109 110)
(111 112)
(113 114)
(115 116)
(117 118)
(119 120)
(121 122)
(123 124)
(125 126)
(127 128)
(129 130)
(131 132)
(133 134)
(135 136)
(137 138)
(139 140)
(141 142)
(143 144)
(145 146)
(147 148)
(149 150)
(151 152)
(153 154)
(155 156)
(156 94)
(100 101)
(96 97)
(98 99)
(102 103)
(104 105)
(106 107)
(108 109)
(110 111)
(112 113)
(114 115)
(116 117)
(118 119)
(120 121)
(122 123)
(124 125)
(126 127)
(128 129)
(130 131)
(132 133)
(134 135)
(136 137)
(138 139)
(140 141)
(142 143)
(144 145)
(146 147)
(148 149)
(150 151)
(152 153)
(154 155)
(157 158)
(158 159)
(160 161)
(162 163)
(164 165)
(166 167)
(168 169)
(170 171)
(172 173)
(174 175)
(176 177)
(178 179)
(180 181)
(182 183)
(184 185)
(186 187)
(187 157)
(163 164)
(159 160)
(161 162)
(165 166)
(167 168)
(169 170)
(171 172)
(173 174)
(175 176)
(177 178)
(179 180)
(181 182)
(183 184)
(185 186)
)

// * * * * * * * * * * * * * * * * * * * * * * * * * * * * * * * * * * * * * //


// ************************************************************************* //
