/*--------------------------------*- C++ -*----------------------------------*\
| =========                 |                                                 |
| \\      /  F ield         | OpenFOAM: The Open Source CFD Toolbox           |
|  \\    /   O peration     | Version:  2206                                  |
|   \\  /    A nd           | Website:  www.openfoam.com                      |
|    \\/     M anipulation  |                                                 |
\*---------------------------------------------------------------------------*/
FoamFile
{
    version     2.0;
    format      ascii;
    arch        "LSB;label=32;scalar=64";
    class       featureEdgeMesh;
    location    "constant/triSurface";
    object      float.eMesh;
}
// * * * * * * * * * * * * * * * * * * * * * * * * * * * * * * * * * * * * * //


// points:

846
(
(18.8978004456 -6.6786198616 -3.04049992561)
(18.8437995911 -6.59731006622 -2.6155500412)
(18.6891994476 -6.35628986359 -2.31640005112)
(18.4762992859 -6.00181007385 -2.20000004768)
(18.2789993286 -5.64659023285 -2.30960011482)
(-4.46457004547 -18.3204994202 -3)
(-4.40781021118 -18.4060001373 -3.39164996147)
(-4.24296998978 -18.6637992859 -3.69741010666)
(-4.04145002365 -19 -3.79999995232)
(-3.66468000412 -19.7059001923 -3.0198199749)
(-3.71526002884 -19.6042995453 -2.58909988403)
(-4.39771986008 -18.4214000702 -2.57732009888)
(18.4792995453 6.00701999664 -3.6880800724)
(18.2765007019 5.6418299675 -3.79994010925)
(17.927400589 4.93083000183 -3.01530003548)
(17.9755992889 5.03647994995 -2.58550000191)
(18.2893009186 5.6658000946 -2.20019006729)
(-14.8464002609 -13.0071001053 -3.68533992767)
(-14.4156999588 -13 -3.79979991913)
(-13.6337995529 -13.0267000198 -3.01091003418)
(-13.7426996231 -13.019900322 -2.59699010849)
(-14.4237003326 -13 -2.20005989075)
(-14.8352003098 -13.0066995621 -2.30801010132)
(-11.2287998199 -19.9277000427 18.3157997131)
(-10.7456998825 -20.2674007416 20.3176994324)
(-1.65469002724 -2.79723000526 1.70182001591)
(-1.60484004021 -2.82612991333 3.78243994713)
(-1.00007998943 -3.0922999382 24.4213008881)
(-2.17778992653 -2.41241002083 24.4216995239)
(-10.8604001999 -20.1800994873 24.4137992859)
(-11.7836999893 -19.6170005798 24.6947994232)
(-12.057800293 -19.4904994965 24.3924007416)
(-11.4587001801 -19.7894992828 23.2005004883)
(-11.1017999649 -20.0102005005 23.3019008636)
(-10.8572998047 -20.1823997498 23.5925998688)
(-2.26781988144 -2.3279800415 24)
(-2.19166994095 -2.39981007576 23.6093997955)
(-1.94486999512 -2.60384011269 23.2973003387)
(-1.61223995686 -2.82190990448 23.2000999451)
(22.8911991119 0.532145023346 18.2525005341)
(22.922700882 0.811881005764 20.3227005005)
(3.24998998642 0.00759539986029 3.78055000305)
(3.23555994034 0.306008011103 3.73561000824)
(3.17730998993 0.683510005474 24.4157009125)
(3.2499499321 0.0177392996848 24.7998008728)
(3.22442007065 -0.40695899725 24.6888008118)
(3.15000009537 -0.800000011921 24)
(22.9067001343 0.684349000454 24.4143009186)
(22.8791999817 0.373448014259 24.7075004578)
(22.9066009521 0.683324992657 23.5839996338)
(3.17456007004 0.696179986 23.6058998108)
(3.24996995926 -0.0130305998027 23.2000999451)
(3.22546005249 0.398615986109 23.3064002991)
(-9.44377040863 -21.6683006287 23.301700592)
(-9.62261009216 -21.414899826 23.6112995148)
(-9.23760032654 -22 23.2000007629)
(-9.04143047333 -22.3689002991 23.3176002502)
(-8.88399982452 -22.7196006775 24)
(-8.9304599762 -22.6096992493 24.4188995361)
(-9.45102977753 -21.6574993134 24.6909008026)
(23.3570995331 -2.37380003929 24.388299942)
(24.1177997589 -3.6660399437 24)
(24.0513000488 -3.5782699585 24.4034996033)
(23.4866008759 -2.65439009666 24.6975002289)
(23.878200531 -3.33273005486 23.302400589)
(24.0505008698 -3.57721996307 23.5942001343)
(-4.6923699379 17.9925003052 -3.05661988258)
(-4.63859987259 18.0678005219 -2.62349009514)
(-4.47801017761 18.3005008698 -2.32163000107)
(-4.25093984604 18.6509990692 -2.20003008842)
(-4.04393005371 18.9957008362 -2.30433988571)
(-3.89551997185 19.2602005005 -2.60963010788)
(-14.4685001373 13 -3.79924988747)
(-14.0509996414 13.0060997009 -3.7025001049)
(-13.6339998245 13.0267000198 -3.02010011673)
(-13.7461004257 13.0197000504 -2.59117007256)
(-14.8242998123 13.0064001083 -2.30178999901)
(-15.1324996948 13.0204000473 -2.61034989357)
(-13.7509002686 -19.0389995575 23.5832996368)
(-13.6337995529 -19.0536003113 24)
(-14.0213003159 -19.0142002106 24.6854991913)
(-14.4442996979 -19 24.7999000549)
(-14.8248996735 -19.0128002167 24.6979007721)
(-15.1358003616 -19.0412006378 24.383600235)
(-2.17686009407 2.41324996948 24.4237003326)
(-1.29636001587 2.98025989532 24.7105998993)
(-0.995357990265 3.09383010864 24.41340065)
(-0.88217997551 3.12797999382 24)
(-0.979754984379 3.09879994392 23.6142997742)
(-1.26681995392 2.99292993546 23.3068008423)
(-1.61438000202 2.82068991661 23.2000999451)
(-1.96410000324 2.5893599987 23.3108005524)
(-1.9137699604 2.62678003311 1.7429599762)
(-1.63366997242 2.8095600605 3.78086996078)
(23.8166999817 3.23877000809 23.5776996613)
(23.658000946 2.9766600132 23.2922992706)
(23.4804992676 2.64195990562 24.7999992371)
(23.8202991486 3.24430990219 24.4115009308)
(-11.9059000015 19.5585002899 18.2525005341)
(-11.6201000214 19.7005996704 18.3300991058)
(-13.6337995529 19.0536003113 24)
(-14.0296001434 19.0135993958 24.6903991699)
(-14.4503002167 19 24.7998008728)
(-13.7512998581 19.0389003754 23.5825996399)
(-11.1096000671 20.0049991608 24.7033004761)
(-10.8480997086 20.1893005371 24.3873996735)
(-10.8481998444 20.1891994476 23.6123008728)
(-11.0953998566 20.0144996643 23.3062000275)
(-11.424200058 19.8094005585 23.2000999451)
(-11.7976999283 19.6100997925 23.3143005371)
(-9.09949016571 22.2530994415 23.5921993256)
(-9.25298976898 21.9734992981 23.2903995514)
(-9.45258045197 21.6551990509 24.7999992371)
(-9.23987007141 21.996099472 24.695400238)
(-9.09722042084 22.2574996948 24.3994007111)
(-0.88217997551 -3.12797999382 24)
(-10.7677001953 -20.2502002716 24)
(3.15000009537 0.800000011921 24)
(22.9211006165 0.8000010252 24)
(-2.26781988144 2.3279800415 24)
(23.882900238 3.33973002434 24)
(-9.04916000366 22.353099823 24)
(38.1193008423 7.64226007462 -6)
(39.2597999573 6 -6)
(36.7220001221 9.0723400116 -6)
(35.1066017151 10.2505998611 -6)
(33.3180007935 11.144200325 -6)
(31.4057998657 11.7285003662 -6)
(29.4232006073 11.9870996475 -6)
(27.4251003265 11.9130001068 -6)
(25.4671001434 11.508099556 -6)
(23.6035003662 10.7838001251 -6)
(21.8859996796 9.76004981995 -6)
(20.3981990814 8.50121021271 -6)
(19.3526000977 7.31204986572 -6)
(18.6662998199 6.31947994232 -6)
(17.6380996704 4.23086977005 -6)
(18.1012992859 5.29989004135 -6)
(17.1427993774 2.55571007729 -6)
(16.8812007904 0.573460996151 -6)
(16.9524002075 -1.42470002174 -6)
(17.3479003906 -3.36119008064 -6)
(17.8066005707 -4.65355014801 -6)
(18.3101005554 -5.70452022552 -6)
(18.9132995605 -6.70169019699 -6)
(19.7434997559 -7.79438018799 -6)
(20.8213005066 -8.90270996094 -6)
(22.3453998566 -10.0728998184 -6)
(24.108499527 -11.015999794 -6)
(26.0035991669 -11.6532001495 -6)
(27.9783000946 -11.9670000076 -6)
(29.9776000977 -11.9484996796 -6)
(31.946100235 -11.598400116 -6)
(33.8292007446 -10.926199913 -6)
(35.5745010376 -9.95067977905 -6)
(37.1335983276 -8.69892024994 -6)
(38.4632987976 -7.20565986633 -6)
(39.5265007019 -5.51236009598 -6)
(40.293800354 -3.66601991653 -6)
(40.7439002991 -1.71791005135 -6)
(40.8642997742 0.277898997068 -6)
(40.651599884 2.26599001884 -6)
(40.1118011475 4.19117021561 -6)
(12.584400177 -10.0769996643 -2.45469999313)
(12.9721002579 -9.83271980286 -2.43633008003)
(12.192899704 -10.2701997757 -2.42574000359)
(6.89094018936 -13.3509998322 -2.44280004501)
(7.27982997894 -13.1169996262 -2.43441009521)
(-0.327630996704 -17.7649993896 -2.85820007324)
(0.142561003566 -17.4922008514 -2.85205006599)
(6.75422000885 -13.6606998444 -2.79724001884)
(7.19560003281 -13.4161996841 -2.83510994911)
(12.3919000626 -10.4196996689 -2.85027003288)
(12.8857002258 -10.1340999603 -2.84802007675)
(-1.15734004974 -18.2371997833 -2.82886004448)
(-0.749669015408 -18.0095996857 -2.86286997795)
(-4.67287015915 -18.0196990967 -6)
(-4.04145002365 -19 -6)
(-5.48756980896 -17.0020999908 -6)
(-6.72839021683 -15.8007001877 -6)
(-8.3639497757 -14.6483001709 -6)
(-11.9956998825 -13.2503004074 -6)
(-10.1681995392 -13.7836999893 -6)
(-13.2866001129 -13.0550003052 -6)
(-14.4513998032 -13 -6)
(-15.6161003113 -13.0584001541 -6)
(-16.9218006134 -13.2608003616 -6)
(-18.7341995239 -13.7969999313 -6)
(-20.5358009338 -14.6673002243 -6)
(-22.1676998138 -15.8247003555 -6)
(-23.5846996307 -17.2373008728 -6)
(-24.7472991943 -18.8656005859 -6)
(-25.6231994629 -20.6644001007 -6)
(-26.1879997253 -22.5837993622 -6)
(-26.4260997772 -24.5702991486 -6)
(-26.3307991028 -26.5687999725 -6)
(-25.9046993256 -28.5237007141 -6)
(-25.1597995758 -30.3805999756 -6)
(-24.1168003082 -32.0880012512 -6)
(-22.8045005798 -33.5983009338 -6)
(-21.2595996857 -34.8694992065 -6)
(-19.5249004364 -35.8665008545 -6)
(-17.6487007141 -36.5612983704 -6)
(-15.6830997467 -36.9347991943 -6)
(-13.682800293 -36.9765014648 -6)
(-11.7033004761 -36.6851997375 -6)
(-9.79977989197 -36.0691986084 -6)
(-8.02507019043 -35.145401001 -6)
(-6.4284901619 -33.9396018982 -6)
(-5.05446004868 -32.4851989746 -6)
(-3.94116997719 -30.8227996826 -6)
(-3.11953997612 -28.9986000061 -6)
(-2.61244010925 -27.0631008148 -6)
(-2.43396997452 -25.070400238 -6)
(-2.58906006813 -23.0755996704 -6)
(-2.99137997627 -21.3845005035 -6)
(-3.50803995132 -20.0373001099 -6)
(1.73775994778 2.74640011787 -6)
(2.81457996368 1.625 -6)
(0.263276994228 3.23932003975 -6)
(-1.27145004272 2.99096989632 -6)
(-2.51522994041 2.05818009377 -6)
(-3.18342995644 0.654411017895 -6)
(-3.12315011024 -0.899112999439 -6)
(-2.3481900692 -2.24689006805 -6)
(-1.03586995602 -3.08049988747 -6)
(0.524824023247 -3.20734000206 -6)
(1.95453000069 -2.59660005569 -6)
(2.9369699955 -1.39164996147 -6)
(3.24732995033 0.13174700737 -6)
(39.2597999573 6 0)
(40.1085014343 4.19992017746 0)
(38.1253013611 7.63504981995 0)
(36.7360992432 9.06011009216 0)
(35.1305007935 10.236000061 0)
(33.3526000977 11.1302995682 0)
(31.4514007568 11.7185001373 0)
(29.4790992737 11.9843997955 0)
(27.4899997711 11.9207000732 0)
(25.5387992859 11.5291004181 0)
(23.6791000366 10.820400238 0)
(21.9620990753 9.81406021118 0)
(20.4631004333 8.56538963318 0)
(19.4030990601 7.37734985352 0)
(18.135099411 5.36796998978 0)
(18.7038993835 6.37972021103 0)
(17.6665992737 4.30589008331 0)
(16.8896999359 0.728964984417 0)
(17.1749000549 2.69855999947 0)
(16.9339008331 -1.26066994667 0)
(17.3064002991 -3.21564006805 0)
(17.7656993866 -4.55527019501 0)
(18.8486995697 -6.60472011566 0)
(18.2576007843 -5.60624980927 0)
(19.6439990997 -7.67637014389 0)
(20.8812007904 -8.95648956299 0)
(22.4713001251 -10.1532001495 0)
(24.2373008728 -11.0706996918 0)
(26.1306991577 -11.6836996078 0)
(28.0993003845 -11.975399971 0)
(30.089099884 -11.9377002716 0)
(32.04529953 -11.5715999603 0)
(33.9140014648 -10.8872995377 0)
(35.6440010071 -9.90349006653 0)
(37.1875991821 -8.6473197937 0)
(38.5023994446 -7.15330982208 0)
(39.5521011353 -5.46255016327 0)
(40.3079986572 -3.62156009674 0)
(40.7491989136 -1.68094003201 0)
(40.8636016846 0.305887013674 0)
(40.6481018066 2.28432011604 0)
(-4.04145002365 -19 0)
(-3.51016998291 -20.0326004028 0)
(-4.67020988464 -18.023399353 0)
(-5.48029994965 -17.0102996826 0)
(-6.77671003342 -15.7603998184 0)
(-8.41158008575 -14.6204996109 0)
(-10.2125997543 -13.7669000626 0)
(-12.0244998932 -13.2444000244 0)
(-13.3058004379 -13.0530996323 0)
(-14.4668998718 -13 0)
(-15.6277999878 -13.0594997406 0)
(-16.9316997528 -13.2629003525 0)
(-18.7399997711 -13.7993001938 0)
(-20.5345001221 -14.6665000916 0)
(-22.1606998444 -15.8187999725 0)
(-23.5736999512 -17.2243003845 0)
(-24.7346000671 -18.8444004059 0)
(-25.6114006042 -20.6341991425 0)
(-26.1798000336 -22.5443992615 0)
(-26.424200058 -24.5223999023 0)
(-26.3379001617 -26.5135993958 0)
(-25.9232006073 -28.4629993439 0)
(-25.1916007996 -30.3169002533 0)
(-24.1632003784 -32.0241012573 0)
(-22.866399765 -33.5376014709 0)
(-21.3369998932 -34.8154983521 0)
(-19.6172008514 -35.8227005005 0)
(-17.7544002533 -36.5313987732 0)
(-15.8000001907 -36.922000885 0)
(-13.8079004288 -36.9836997986 0)
(-11.8331003189 -36.7148017883 0)
(-9.93004989624 -36.1227989197 0)
(-8.15120029449 -35.2239990234 0)
(-6.54566001892 -34.0430984497 0)
(-5.15771007538 -32.6128005981 0)
(-4.02562999725 -30.9724998474 0)
(-3.1806499958 -29.1674995422 0)
(-2.64609003067 -27.2474002838 0)
(-2.43670010567 -25.2653999329 0)
(-2.55821990967 -23.2761001587 0)
(-2.97919988632 -21.4232997894 0)
(-9.23760032654 -22 26)
(-9.7197599411 -21.2880992889 26)
(-10.4419002533 -20.5205993652 26)
(-11.1377000809 -19.9864006042 26)
(-11.9018001556 -19.5604000092 26)
(-12.7729997635 -19.2343997955 26)
(-13.7543001175 -19.0386009216 26)
(-14.6078996658 -19.0025005341 26)
(-15.4555997849 -19.0876998901 26)
(-16.5963001251 -19.4032993317 26)
(-18.1354999542 -20.2780990601 26)
(-19.4703006744 -21.739200592 26)
(-20.2572002411 -23.5550003052 26)
(-19.9136009216 -27.4437007904 26)
(-18.8204994202 -29.0935001373 26)
(-17.2502002716 -30.2978992462 26)
(-15.3734998703 -30.9260005951 26)
(-13.3944997787 -30.9092998505 26)
(-11.5285997391 -30.2497997284 26)
(-9.97881031036 -29.0191001892 26)
(-8.91364955902 -27.3512001038 26)
(-8.44900035858 -25.4274997711 26)
(-8.53680038452 -23.8927993774 26)
(-8.85760974884 -22.7849006653 26)
(-20.4104995728 -25.5280990601 26)
(-10.8851995468 -18.5755996704 18.7231998444)
(-10.8095998764 -18.307100296 18.3504009247)
(2.81457996368 1.625 26)
(1.93603003025 2.61041998863 26)
(0.413587003946 3.22357988358 26)
(-0.739611029625 3.16472005844 26)
(-1.56966996193 2.84580993652 26)
(-2.33070993423 2.26501989365 26)
(-2.88163995743 -1.50287997723 26)
(-2.20835995674 -2.38445997238 26)
(-1.56382000446 -2.84903001785 26)
(-0.555414021015 -3.20218992233 26)
(0.670774996281 -3.18002009392 26)
(2.12867999077 -2.45584988594 26)
(2.99908995628 -1.2521699667 26)
(3.23758006096 -0.283908993006 26)
(3.19566988945 0.591750025749 26)
(-2.9557800293 1.35125005245 26)
(-3.24826002121 -0.106461003423 26)
(-1.07984995842 -3.47036004066 24)
(-1.30625998974 -3.8625099659 24)
(-10.5586996078 -19.8882007599 24)
(-1.50022995472 -3.97924995422 23.5958003998)
(-1.28416001797 -3.5178399086 23.5291996002)
(-9.83106040955 -15.4969997406 24.2325000763)
(-10.0336999893 -15.8739004135 24.2716007233)
(-9.40550994873 -15.1346998215 23.4470005035)
(-9.17395019531 -14.7863998413 23.4207000732)
(-3.44905996323 -4.42025995255 23.8089008331)
(-3.19994997978 -3.96963000298 23.8532009125)
(-9.70271968842 -15.2569999695 23.7987995148)
(-9.47861003876 -14.8573999405 23.8222999573)
(-9.9416103363 -15.6710996628 23.7980995178)
(-3.48471999168 -4.54131984711 24.2858009338)
(-3.22865009308 -4.11501979828 24.3073997498)
(34.0637016296 3 26)
(32.8021011353 4.52977991104 26)
(31.1107997894 5.56484985352 26)
(29.1746006012 5.99213981628 26)
(27.20470047 5.76499986649 26)
(25.4165000916 4.90822982788 26)
(24.3488006592 3.9473400116 26)
(23.7840995789 3.18733000755 26)
(23.3663005829 2.39502000809 26)
(23.081199646 1.5870000124 26)
(22.8997001648 0.620887994766 26)
(22.8721008301 -0.234313994646 26)
(22.9659996033 -1.08271002769 26)
(23.2434997559 -2.09065008163 26)
(23.6249008179 -2.91796994209 26)
(24.1194992065 -3.6682600975 26)
(24.7644996643 -4.37782001495 26)
(25.8241996765 -5.17087984085 26)
(27.5018997192 -5.84252977371 26)
(29.4808006287 -5.96857023239 26)
(31.3927001953 -5.44275999069 26)
(33.0288009644 -4.32250022888 26)
(34.2103996277 -2.73015999794 26)
(34.8084983826 -0.839644014835 26)
(34.7577018738 1.14256000519 26)
(4.30776977539 -0.0290190000087 2.59750008583)
(4.0167298317 -0.00166331999935 2.34618997574)
(4.35529994965 -0.391424000263 2.84205007553)
(3.9866900444 -0.430840998888 2.56387996674)
(3.85503005981 -0.54577600956 3.86571002007)
(4.15944004059 -0.509904026985 4.16958999634)
(22.2490997314 -0.206690996885 18.3708992004)
(21.9824008942 -0.174468994141 18.0340995789)
(20.952999115 0.0568690001965 18.5179004669)
(20.5911006927 0.00269783008844 18.1679000854)
(20.989200592 0.545615971088 18.7411994934)
(20.6261005402 0.461511999369 18.4332008362)
(3.56820011139 0.800000011921 24)
(22.4946994781 0.8000010252 24)
(21.9200992584 0.696108996868 23.6056995392)
(21.4890003204 0.695204973221 23.6042003632)
(20.8726005554 -0.343317985535 23.2773990631)
(20.4356994629 -0.322926998138 23.2681007385)
(20.0314006805 -0.253971993923 23.241399765)
(21.0629005432 -0.66097599268 23.5492992401)
(20.6159992218 -0.662813007832 23.5520000458)
(20.1392993927 -0.65500998497 23.5407009125)
(20.3820991516 -0.799830973148 24.0163002014)
(19.9071006775 -0.799969017506 23.9934005737)
(22.3733005524 -4.4141998291 23.4444999695)
(21.9500999451 -4.64732980728 23.4346008301)
(22.227399826 -4.74747991562 23.8826999664)
(21.7600002289 -4.99626016617 23.794500351)
(21.539100647 -5.1045498848 24.2602996826)
(21.9190998077 -4.885409832 24.2595996857)
(-3.13368010521 18.1688995361 -2.21132993698)
(-2.67623996735 17.889799118 -2.20921993256)
(16.7415008545 6.63523006439 -2.20433998108)
(17.1408996582 6.40256023407 -2.20415997505)
(10.7236995697 9.45129966736 -3.6347899437)
(10.3521995544 9.61931037903 -3.60180997849)
(11.4819002151 8.92333030701 -2.43360996246)
(11.8864002228 8.67479991913 -2.44687008858)
(12.3125 8.47004985809 -2.41179990768)
(9.62590026855 9.990650177 -2.43728995323)
(9.98375034332 9.7544298172 -2.46444988251)
(12.2362003326 8.30430984497 -3.34056997299)
(11.8313999176 8.51352977753 -3.29119992256)
(10.432800293 9.29666996002 -3.23007011414)
(10.0375003815 9.54088973999 -3.27189993858)
(9.72482013702 9.68443965912 -2.8426399231)
(10.1328001022 9.45337963104 -2.82445001602)
(11.5565004349 8.6234998703 -2.85818004608)
(12.0454998016 8.34545993805 -2.83886003494)
(-5.18180990219 32.6421012878 -6)
(-4.04145002365 31 -6)
(-6.57895994186 34.072101593 -6)
(-8.1941204071 35.2501983643 -6)
(-9.98248004913 36.143901825 -6)
(-11.8943996429 36.7281990051 -6)
(-13.8767995834 36.9870986938 -6)
(-15.8746004105 36.9132003784 -6)
(-17.8325004578 36.5085983276 -6)
(-19.6959991455 35.7846984863 -6)
(-21.41340065 34.7612991333 -6)
(-22.9372005463 33.4670982361 -6)
(-24.224899292 31.9377994537 -6)
(-25.2408008575 30.2159996033 -6)
(-25.9568004608 28.3493995667 -6)
(-26.3530006409 26.389799118 -6)
(-26.4183006287 24.3917007446 -6)
(-26.1509990692 22.4104003906 -6)
(-25.5585002899 20.5011005402 -6)
(-24.6571998596 18.7164993286 -6)
(-23.4720993042 17.1063995361 -6)
(-22.0361995697 15.7153997421 -6)
(-20.3892002106 14.5820999146 -6)
(-18.5769996643 13.7378997803 -6)
(-16.7966003418 13.2349004745 -6)
(-15.4902000427 13.0466003418 -6)
(-14.3254995346 13.0004997253 -6)
(-13.1618995667 13.0676002502 -6)
(-11.8748998642 13.2760000229 -6)
(-10.0936002731 13.8123998642 -6)
(-8.29646968842 14.6881999969 -6)
(-5.48321008682 17.0069999695 -6)
(-6.66965007782 15.8501996994 -6)
(-4.73770999908 17.9298992157 -6)
(-4.09764003754 18.9036998749 -6)
(-3.55494999886 19.935300827 -6)
(-3.00711989403 21.3349990845 -6)
(-2.55722999573 23.283000946 -6)
(-2.43699002266 25.2786006927 -6)
(-2.64972996712 27.2663993835 -6)
(-3.18954992294 29.191400528 -6)
(-9.23760032654 28 26)
(-10.4969997406 29.5279006958 26)
(-12.1850004196 30.5627002716 26)
(-14.1180000305 30.9916992188 26)
(-16.0853004456 30.7681999207 26)
(-17.872800827 29.9165992737 26)
(-19.2858009338 28.5296001434 26)
(-20.1704006195 26.7581996918 26)
(-20.4302997589 24.79529953 26)
(-20.0370998383 22.8547000885 26)
(-19.0338001251 21.1478004456 26)
(-17.5615997314 19.8798007965 26)
(-16.3229007721 19.3052005768 26)
(-15.2229003906 19.0520992279 26)
(-14.3154001236 19.0011997223 26)
(-13.464099884 19.0788993835 26)
(-12.5023002625 19.3194007874 26)
(-11.6535997391 19.6830005646 26)
(-10.92029953 20.1362991333 26)
(-10.1593999863 20.7893009186 26)
(-9.59039974213 21.4585990906 26)
(-9.10464954376 22.2430992126 26)
(-8.7271900177 23.1466007233 26)
(-8.47243976593 24.3197994232 26)
(-8.54411029816 26.1453990936 26)
(-4.04145002365 31 0)
(-3.18981003761 29.1921005249 0)
(-5.18133020401 32.6414985657 0)
(-6.57780981064 34.0710983276 0)
(-8.19217967987 35.2490005493 0)
(-9.97966003418 36.1427993774 0)
(-11.8907003403 36.7274017334 0)
(-13.8722000122 36.9869003296 0)
(-15.8692998886 36.9137992859 0)
(-17.8265991211 36.5103988647 0)
(-19.6898002625 35.7877006531 0)
(-21.4073009491 34.7658004761 0)
(-22.9312992096 33.4729995728 0)
(-24.2196006775 31.9452991486 0)
(-25.2364997864 30.224899292 0)
(-25.9538993835 28.3596000671 0)
(-26.3516998291 26.4011993408 0)
(-26.4188995361 24.4039001465 0)
(-26.153799057 22.4230995178 0)
(-25.5636005402 20.5137004852 0)
(-24.6646995544 18.7289009094 0)
(-23.4820995331 17.1179008484 0)
(-22.048500061 15.7255001068 0)
(-20.4036998749 14.5903997421 0)
(-18.5933990479 13.7440004349 0)
(-16.8097991943 13.2376003265 0)
(-14.3368997574 13.0003995895 0)
(-15.5010995865 13.0475997925 0)
(-13.1732997894 13.0663995743 0)
(-11.888299942 13.2730998993 0)
(-10.1113996506 13.8055000305 0)
(-8.3134803772 14.6780996323 0)
(-6.68532991409 15.8368997574 0)
(-5.49327993393 16.9958000183 0)
(-4.74452018738 17.9204998016 0)
(-4.10336017609 18.8939990997 0)
(-3.55047011375 19.9449005127 0)
(-3.00422000885 21.3441009521 0)
(-2.55679988861 23.2859992981 0)
(-2.43705010414 25.2807998657 0)
(-2.65001988411 27.2679004669 0)
(-2.13474011421 3.78131008148 2.62934994698)
(-2.01742005348 3.49825000763 2.3644900322)
(-11.5845003128 19.4778003693 18.1086006165)
(-11.5507001877 19.2238006592 17.8749008179)
(-1.862169981 4.00476980209 2.87847995758)
(-1.62212002277 3.69709992409 2.60156011581)
(-1.66822004318 4.12414979935 3.25537991524)
(-1.43289005756 3.80178999901 3.02705001831)
(-1.7282999754 3.85329008102 4.31237983704)
(-1.9135299921 4.11753988266 4.60683012009)
(-8.68620967865 13.4799003601 14.4230003357)
(-8.86855983734 13.7305002213 14.6641998291)
(-2.81347990036 3.71023988724 4.75223016739)
(-2.94147992134 3.9683599472 5.01702022552)
(-10.4341001511 18.0074005127 18.3789997101)
(-10.2297000885 17.8162002563 18.0701007843)
(-8.14785003662 14.3779001236 14.6993999481)
(-7.97559976578 14.1343002319 14.4239997864)
(-2.09384989738 4.4113202095 4.89831018448)
(-10.5881996155 17.5028991699 18.2819004059)
(-10.8029003143 17.7919998169 18.5874996185)
(-15.1351003647 -18.0401000977 24.3847999573)
(-15.1346998215 -17.6511993408 24.3854999542)
(-13.8705997467 17.8012008667 23.4316997528)
(-13.8717002869 17.2905006409 23.4307003021)
(-2.46670007706 2.67245006561 24)
(-1.78036999702 4.39465999603 24.4585990906)
(-2.03502988815 4.78051996231 24.4958000183)
(-2.00065994263 5.05628013611 24.0846004486)
(-1.7274800539 4.5862197876 24.0683994293)
(23.5380992889 3.53884005547 24)
(-8.69379043579 22.1478996277 24)
(-8.21778011322 21.7611999512 24.3817005157)
(-7.8754901886 21.5540008545 24.3964996338)
(-7.77645015717 20.7966995239 24.7950992584)
(-7.4235701561 20.64909935 24.7882003784)
(-4.61596012115 18.218000412 23.4330997467)
(-4.98194980621 18.4127998352 23.4477996826)
(9.52326965332 10.0427999496 24.5564002991)
(9.9210395813 9.83705043793 24.5769996643)
(9.3631401062 9.92220973969 23.7481002808)
(9.02562999725 10.1414003372 23.6917991638)
(7.97243976593 10.7213001251 23.7581996918)
(7.61354017258 10.9420003891 23.7241001129)
(1.8592799902 14.2274999619 23.8346004486)
(1.48680996895 14.4422998428 23.8355998993)
(9.15398025513 10.0249996185 24.1989002228)
(9.60361003876 9.75874996185 24.1749000549)
(7.80256986618 10.8002004623 24.1809997559)
(8.2312297821 10.5525999069 24.1807003021)
(-7.70916986465 19.8075008392 23.6830005646)
(-8.04543972015 20.0035991669 23.6791992188)
(18.0983009338 -5.29382991791 -3)
(18.1417999268 -5.38131999969 -3.38271999359)
(18.2763996124 -5.64168977737 -3.68712997437)
(18.4598999023 -5.97347021103 -3.79941010475)
(18.6704006195 -6.32609987259 -3.70397996902)
(18.827999115 -6.57330989838 -3.43267011642)
(18.1417999268 -5.3814201355 -2.61705994606)
(-3.84261989594 -19.3584003448 -3.68707990646)
(-3.71325993538 -19.6082000732 -3.40337991714)
(-3.85371994972 -19.337600708 -2.29942011833)
(-4.04145002365 -19 -2.20000004768)
(-4.23979997635 -18.6688995361 -2.29924988747)
(18.6270008087 6.25562000275 -3.39216995239)
(18.6809997559 6.34307003021 -3)
(18.0970993042 5.29138994217 -3.69125008583)
(17.9731998444 5.03121995926 -3.40482997894)
(18.1014995575 5.30030012131 -2.30308008194)
(18.4829006195 6.01335000992 -2.31630992889)
(18.6270008087 6.25558996201 -2.60776996613)
(-15.2337999344 -13.0267000198 -3)
(-15.1319999695 -13.0202999115 -3.39038991928)
(-14.0277996063 -13.0068998337 -3.68936991692)
(-13.7427997589 -13.019900322 -3.4032599926)
(-14.0347003937 -13.0066003799 -2.30664992332)
(-15.1220998764 -13.0198001862 -2.59230995178)
(-10.4932003021 -20.4754009247 0)
(-9.23760032654 -22 0)
(-12.1759004593 -19.4409999847 0)
(-14.1031999588 -19.0090999603 0)
(-16.066400528 -19.2264003754 0)
(-17.8526000977 -20.0692996979 0)
(-19.2682991028 -21.4465999603 0)
(-20.160200119 -23.2089004517 0)
(-20.4314994812 -25.1653003693 0)
(-20.0527992249 -27.1037998199 0)
(-19.0652999878 -28.8143005371 0)
(-17.575799942 -30.1114997864 0)
(-15.7458000183 -30.8547992706 0)
(-13.7736997604 -30.9636001587 0)
(-11.8731002808 -30.4260997772 0)
(-10.25 -29.300699234 0)
(-9.08022975922 -27.7091999054 0)
(-8.49063014984 -25.8241004944 0)
(-8.54504966736 -23.8497009277 0)
(-10.7491998672 -20.2646007538 18.3451004028)
(-10.9763002396 -20.0963001251 18.253200531)
(-11.4735002518 -19.7810993195 18.5778007507)
(-11.6142997742 -19.7036991119 18.9508991241)
(-11.6426000595 -19.6886997223 19.3852996826)
(-11.5450000763 -19.7411994934 19.8085002899)
(-11.3109998703 -19.8766994476 20.1672992706)
(-11.0109996796 -20.0720005035 20.3388996124)
(-10.508600235 -20.4619998932 20.1140003204)
(-10.3615999222 -20.5933990479 19.7338008881)
(-10.3355998993 -20.6175994873 19.3409004211)
(-10.3962001801 -20.5617008209 18.9463996887)
(-10.5356998444 -20.4386997223 18.5981998444)
(-1.31797003746 -2.9707698822 1.7429599762)
(-1.94834005833 -2.60124993324 1.85968995094)
(-2.14096999168 -2.44514989853 2.1884200573)
(-2.20853996277 -2.38428997993 2.57119011879)
(-2.18466997147 -2.40618991852 2.96395993233)
(-2.06818008423 -2.50700998306 3.35805988312)
(-1.86381995678 -2.66246008873 3.65543007851)
(-1.34712004662 -2.95765995979 3.73281002045)
(-1.08432996273 -3.06378006935 3.50528001785)
(-0.894487023354 -3.12448000908 3.15335988998)
(-0.807955026627 -3.14796996117 2.73182988167)
(-0.855729997158 -3.1353199482 2.3006799221)
(-1.03647994995 -3.08029007912 1.95653998852)
(-1.27953004837 -2.98751997948 24.7008991241)
(-1.62557005882 -2.81424999237 24.7999992371)
(-1.94652998447 -2.60260009766 24.7015991211)
(-11.1035995483 -20.0090007782 24.6993999481)
(-11.4383001328 -19.8012008667 24.7999992371)
(-12.1534004211 -19.4501991272 24)
(-12.0619001389 -19.4887008667 23.6154003143)
(-11.8120002747 -19.603099823 23.3241004944)
(-0.984122991562 -3.09741997719 23.606300354)
(-1.26061999798 -2.99554991722 23.3106994629)
(22.9242992401 0.823247015476 18.3451004028)
(22.871799469 0.227123007178 18.3222999573)
(22.8675994873 -0.0374315008521 18.5655994415)
(22.8710002899 -0.203683003783 18.939699173)
(22.8722991943 -0.239092007279 19.377199173)
(22.8687992096 -0.122557997704 19.8194007874)
(22.8689994812 0.132147997618 20.1583003998)
(22.8864002228 0.476258009672 20.3339996338)
(22.9731998444 1.12112998962 20.1242008209)
(23.0132007599 1.31403005123 19.7677001953)
(23.0235996246 1.35950005054 19.3726997375)
(23.0076007843 1.2891600132 18.9810009003)
(22.9699001312 1.10343003273 18.6093997955)
(3.24989008904 -0.0270342007279 1.70070004463)
(3.23173999786 0.343988001347 1.7429599762)
(3.22922992706 -0.36683601141 1.8441400528)
(3.16950011253 -0.718854010105 2.54815006256)
(3.19079995155 -0.6174659729 2.15745997429)
(3.17502999306 -0.694034993649 2.93971991539)
(3.20283007622 -0.551721990108 3.33295989037)
(3.23690009117 -0.291458010674 3.64885997772)
(3.19513988495 0.594645023346 3.50302004814)
(3.15301990509 0.787999987602 3.15224003792)
(3.13066005707 0.872615993023 2.75768995285)
(3.14112997055 0.834151029587 2.32716989517)
(3.18435001373 0.649954020977 1.965280056)
(3.22561001778 0.397450000048 24.6942996979)
(3.17610001564 -0.689113974571 24.4062995911)
(22.8675994873 -0.0217016004026 24.7996997833)
(22.8817005157 -0.412701994181 24.685300827)
(22.9081993103 -0.697121024132 24.3924999237)
(22.9211006165 -0.799998998642 24)
(22.908000946 -0.695662021637 23.6049995422)
(22.8815002441 -0.409420996904 23.3127002716)
(22.8675003052 -0.0137593997642 23.2000999451)
(22.8796005249 0.381137013435 23.2966003418)
(3.17437005043 -0.697070002556 23.6075000763)
(3.22450995445 -0.406277000904 23.3108005524)
(23.3178005219 -2.28040003777 24)
(23.3558998108 -2.37111997604 23.6170005798)
(-8.92329025269 -22.6263008118 23.6117992401)
(-9.05541038513 -22.3404006958 24.700799942)
(-9.23760032654 -22 24.7999992371)
(-9.62283039093 -21.4146003723 24.3880996704)
(-9.68400001526 -21.3339996338 24)
(23.8819999695 -3.33836007118 24.6937999725)
(23.677400589 -3.01047992706 24.7999000549)
(23.4820995331 -2.6452600956 23.3083000183)
(23.6613006592 -2.9825899601 23.2003002167)
(32.8079986572 4.52464008331 0)
(34.0637016296 3 0)
(31.1254005432 5.55895996094 0)
(29.1979999542 5.99089002609 0)
(27.2348995209 5.77361011505 0)
(25.4486999512 4.93065977097 0)
(24.0328998566 3.55341005325 0)
(23.1410999298 1.7910900116 0)
(22.8698005676 -0.165323004127 0)
(23.2483997345 -2.10383009911 0)
(24.236000061 -3.81434011459 0)
(25.7255001068 -5.11150979996 0)
(27.5554008484 -5.85478019714 0)
(29.5275993347 -5.96359014511 0)
(31.4281997681 -5.42613983154 0)
(33.0513000488 -4.30070018768 0)
(34.2210006714 -2.7091999054 0)
(34.8106002808 -0.824119985104 0)
(34.7561988831 1.15025997162 0)
(-3.89549994469 19.2602005005 -3.39031004906)
(-3.84722995758 19.3497009277 -3)
(-4.03662014008 19.0083999634 -3.68713998795)
(-4.23516988754 18.6763000488 -3.799669981)